aspirin
     File Viewer Demo     3D

 13 13  0  0  0  0  0  0  0  0999 V2000
    1.2953   -0.1704    0.0000 C   0  0  0  0  0  0  0  0  0  0  0  0
    0.6184   -1.3674    0.0000 C   0  0  0  0  0  0  0  0  0  0  0  0
   -0.7557   -1.3694    0.0000 C   0  0  0  0  0  0  0  0  0  0  0  0
   -1.4344   -0.1719    0.0000 C   0  0  0  0  0  0  0  0  0  0  0  0
   -0.7547    1.0278    0.0000 C   0  0  0  0  0  0  0  0  0  0  0  0
    0.6198    1.0272    0.0000 C   0  0  0  0  0  0  0  0  0  0  0  0
    2.7484   -0.1723    0.0000 C   0  0  0  0  0  0  0  0  0  0  0  0
    3.4320    1.0283    0.0000 O   0  0  0  0  0  0  0  0  0  0  0  0
    3.4226   -1.3669    0.0000 O   0  0  0  0  0  0  0  0  0  0  0  0
   -1.4405    2.2261    0.0000 O   0  0  0  0  0  0  0  0  0  0  0  0
   -2.8169    2.2242    0.0000 C   0  0  0  0  0  0  0  0  0  0  0  0
   -3.5000    1.0330    0.0000 C   0  0  0  0  0  0  0  0  0  0  0  0
   -3.5000    3.4218    0.0000 O   0  0  0  0  0  0  0  0  0  0  0  0
  1  2  2  0
  2  3  1  0
  3  4  2  0
  4  5  1  0
  5  6  2  0
  6  1  1  0
  1  7  1  0
  7  8  2  0
  7  9  1  0
  5 10  1  0
 10 11  1  0
 11 12  1  0
 11 13  2  0
M  END
> <PUBCHEM_COMPOUND_CID>
2244

> <PUBCHEM_IUPAC_NAME>
2-(acetyloxy)benzoic acid

> <PUBCHEM_MOLECULAR_FORMULA>
C9H8O4

> <PUBCHEM_MOLECULAR_WEIGHT>
180.16

> <PUBCHEM_EXACT_MASS>
180.042

$$$$
